*Heading
** Job name: ht2 Model name: Model-1
** Generated by: Abaqus/CAE 6.13-4
*Preprint, echo=NO, model=NO, history=NO, contact=NO
**
** PARTS
**
*Part, name=Part-1
*End Part
**  
**
** ASSEMBLY
**
*Assembly, name=Assembly
**  
*Instance, name=Part-1-1, part=Part-1
*Node
      1,           0.,           0.
      2, 3.00000011e-06,           0.
      3, 6.00000021e-06,           0.
      4, 9.00000032e-06,           0.
      5, 1.20000004e-05,           0.
      6, 1.49999996e-05,           0.
      7, 1.80000006e-05,           0.
      8, 2.09999998e-05,           0.
      9, 2.40000008e-05,           0.
     10,      2.7e-05,           0.
     11, 2.99999992e-05,           0.
     12, 3.30000003e-05,           0.
     13, 3.60000013e-05,           0.
     14, 3.89999987e-05,           0.
     15, 4.19999997e-05,           0.
     16, 4.50000007e-05,           0.
     17, 4.80000017e-05,           0.
     18, 5.09999991e-05,           0.
     19, 5.40000001e-05,           0.
     20, 5.70000011e-05,           0.
** ... 5131 like lines cut
*Element, type=DC2D4
   1,    1,    2,  103,  102
   2,    2,    3,  104,  103
   3,    3,    4,  105,  104
   4,    4,    5,  106,  105
   5,    5,    6,  107,  106
   6,    6,    7,  108,  107
   7,    7,    8,  109,  108
   8,    8,    9,  110,  109
   9,    9,   10,  111,  110
  10,   10,   11,  112,  111
  11,   11,   12,  113,  112
  12,   12,   13,  114,  113
  13,   13,   14,  115,  114
  14,   14,   15,  116,  115
  15,   15,   16,  117,  116
  16,   16,   17,  118,  117
  17,   17,   18,  119,  118
  18,   18,   19,  120,  119
  19,   19,   20,  121,  120
  20,   20,   21,  122,  121
** ... 4980 like lines cut
*Nset, nset=Set-1, generate
    1,  5151,     1
*Elset, elset=Set-1, generate
    1,  5000,     1
** Section: Section-1
*Solid Section, elset=Set-1, material=Material-1
1.,
*End Instance
**  
*Nset, nset=Set-1, instance=Part-1-1, generate
    1,  5151,     1
*Elset, elset=Set-1, instance=Part-1-1, generate
    1,  5000,     1
*Elset, elset=_Surf-1_S1, internal, instance=Part-1-1, generate
   1,  100,    1
*Surface, type=ELEMENT, name=Surf-1
_Surf-1_S1, S1
*End Assembly
** 
** MATERIALS
** 
*Material, name=Material-1
*Conductivity
 1e-10,
*Density
1.,
*Specific Heat
1.,
** 
** PREDEFINED FIELDS
** 
** Name: Predefined Field-1   Type: Temperature
*Initial Conditions, type=TEMPERATURE
Set-1, 0.0078
** ----------------------------------------------------------------
** 
** STEP: Step-1
** 
*Step, name=Step-1, nlgeom=NO, inc=10
*Heat Transfer, end=PERIOD
1., 10., , ,
** 
** LOADS
** 
** Name: Load-1   Type: Surface heat flux
*Dsflux
Surf-1, S, 1e-06
** 
** OUTPUT REQUESTS
** 
*Restart, write, frequency=0
** 
** FIELD OUTPUT: F-Output-1
** 
*Output, field, variable=PRESELECT
*Output, history, frequency=0
*End Step
