*Heading
** Job name: ht2 Model name: Model-1
** Generated by: Abaqus/CAE 6.13-4
*Preprint, echo=NO, model=NO, history=NO, contact=NO
**
** PARTS
**
*Part, name=Part-1
*End Part
**
**
** ASSEMBLY
**
*Assembly, name=Assembly
**
*Instance, name=Part-1-1, part=Part-1
*Node
      1,           0.,           0.
      2, 1.49999996e-05,           0.
      3, 2.99999992e-05,           0.
      4, 4.50000007e-05,           0.
      5, 5.99999985e-05,           0.
      6, 7.50000036e-05,           0.
      7, 9.00000014e-05,           0.
      8, 0.000104999999,           0.
      9, 0.000119999997,           0.
     10, 0.000134999995,           0.
     11, 0.000150000007,           0.
     12, 0.000165000005,           0.
     13, 0.000180000003,           0.
     14, 0.000195000001,           0.
     15, 0.000209999998,           0.
     16, 0.000224999996,           0.
     17, 0.000239999994,           0.
     18, 0.000254999992,           0.
     19, 0.00026999999,           0.
     20, 0.000284999987,           0.
** ... 1051 like lines cut
*Element, type=DC2D4
   1,    1,    2,   23,   22
   2,    2,    3,   24,   23
   3,    3,    4,   25,   24
   4,    4,    5,   26,   25
   5,    5,    6,   27,   26
   6,    6,    7,   28,   27
   7,    7,    8,   29,   28
   8,    8,    9,   30,   29
   9,    9,   10,   31,   30
  10,   10,   11,   32,   31
  11,   11,   12,   33,   32
  12,   12,   13,   34,   33
  13,   13,   14,   35,   34
  14,   14,   15,   36,   35
  15,   15,   16,   37,   36
  16,   16,   17,   38,   37
  17,   17,   18,   39,   38
  18,   18,   19,   40,   39
  19,   19,   20,   41,   40
  20,   20,   21,   42,   41
** ... 980 like lines cut
*Nset, nset=Set-1, generate
    1,  1071,     1
*Elset, elset=Set-1, generate
    1,  1000,     1
** Section: Section-1
*Solid Section, elset=Set-1, material=Material-1
1.,
*End Instance
**
*Nset, nset=Set-1, instance=Part-1-1, generate
    1,  1071,     1
*Elset, elset=Set-1, instance=Part-1-1, generate
    1,  1000,     1
*Elset, elset=_Surf-1_S1, internal, instance=Part-1-1, generate
  1,  20,   1
*Surface, type=ELEMENT, name=Surf-1
_Surf-1_S1, S1
*End Assembly
**
** MATERIALS
**
*Material, name=Material-1
*Conductivity
 1.0e-10,
*Density
1.,
*Specific Heat
1.,
**
** PREDEFINED FIELDS
**
** Name: Predefined Field-1   Type: Temperature
*Initial Conditions, type=TEMPERATURE
Set-1, 1.0
** ----------------------------------------------------------------
**
** STEP: Step-1
**
*Step, name=Step-1, nlgeom=NO
*Heat Transfer, end=PERIOD
1., 10., , ,
**
** LOADS
**
** Name: Load-1   Type: Surface heat flux
*Dsflux
Surf-1, S, 1.0e-6
**
** OUTPUT REQUESTS
**
*Restart, write, frequency=0
**
** FIELD OUTPUT: F-Output-1
**
*Output, field, variable=PRESELECT
*Output, history, frequency=0
*End Step
