*Heading
** Job name: test_block Model name: Model-1
** Generated by: Abaqus/CAE 6.13-4
*Preprint, echo=NO, model=NO, history=NO, contact=NO
**
** PARTS
**
*Part, name=Part-1
*End Part
**  
*Part, name=Part-2
*End Part
**  
**
** ASSEMBLY
**
*Assembly, name=Assembly
**  
*Instance, name=Part-1-1, part=Part-1
*Node
      1,   1.46994257,  0.298778981
      2,   1.38097489,  0.585583925
      3,   1.23666239,  0.848920643
      4,   1.04278862,   1.07823551
      5,  0.807123542,   1.26433837
      6,  0.539111674,   1.39977098
      7,  0.249494031,   1.47910535
      8, 0.0501224659,   1.49916232
      9, -0.249494031,   1.47910535
     10, -0.539111674,   1.39977098
     11, -0.807123542,   1.26433837
     12,  -1.04278862,   1.07823551
     13,  -1.23666239,  0.848920643
     14,  -1.38097489,  0.585583925
     15,  -1.46994257,  0.298778981
     16,         -1.5,           0.
     17,  -1.46994257, -0.298778981
     18,  -1.38097489, -0.585583925
     19,  -1.23666239, -0.848920643
     20,  -1.04278862,  -1.07823551
** ... 3524 like lines cut
*Element, type=CPE3
 1, 1867,  305, 1841
 2, 2000, 2329, 3412
 3, 1976, 3104, 1876
 4, 3462, 2587, 3409
 5, 3127, 3103, 1459
 6, 2597, 2458,  520
 7, 2947, 2837,  388
 8, 3483, 2916,  257
 9, 3009, 2933, 2799
10, 3391, 2570,  390
11, 2717, 2366,  514
12, 3380, 2459,  648
13, 3017, 2901, 2786
14, 1319, 2314, 1547
15, 1631, 1479,  169
16, 1734, 1645,  465
17, 1735, 1646,  182
18, 1737, 1648,  312
19, 2496, 1840,  162
20, 3175, 3122, 1976
** ... 66 like lines cut
*Element, type=CPE4
  87,  940,   88,  864,  996
  88, 1591, 1566,  529, 1468
  89, 1978, 1914,  530, 1898
  90,  531, 2402, 2560, 2336
  91, 2818, 2921, 2840, 2695
  92, 3036, 2904, 2872, 3505
  93, 2969, 2904,  534, 3028
  94, 2910, 2973,  536, 2995
  95, 2995,  536, 2935,  537
  96, 2890,  537, 2852,  538
  97, 2433,  539, 2296, 2573
  98, 3373, 2228, 2012, 3278
  99, 2161, 3373, 3278, 1856
 100, 2362,  514, 3403, 2646
 101,  516, 2865, 2750, 2704
 102, 3331, 2065,  545, 2532
 103, 2315, 2699, 2532,  545
 104, 2674,  547, 3426, 2941
 105, 2882, 2941, 3426, 2685
 106, 2834,  521, 2882, 2685
** ... 3314 like lines cut
*Nset, nset=Set-1, generate
    1,  3544,     1
*Elset, elset=Set-1, generate
    1,  3420,     1
** Section: Section-1
*Solid Section, elset=Set-1, material=Material-1
,
*End Instance
**  
*Instance, name=Part-2-1, part=Part-2
*Node
      1,   1.46994257,  0.298778981
      2,   1.38097489,  0.585583925
      3,   1.23666239,  0.848920643
      4,  0.968441784,   1.14547825
      5,  0.720872641,   1.31542492
      6,  0.444413364,   1.43265378
      7,  0.150143534,   1.49246669
      8, -0.150143534,   1.49246669
      9, -0.444413364,   1.43265378
     10, -0.720872641,   1.31542492
     11, -0.968441784,   1.14547825
     12,  -1.23666239,  0.848920643
     13,  -1.38097489,  0.585583925
     14,  -1.46994257,  0.298778981
     15,         -1.5,           0.
     16,  -1.46994257, -0.298778981
     17,  -1.38097489, -0.585583925
     18,  -1.23666239, -0.848920643
     19, -0.968441784,  -1.14547825
     20, -0.720872641,  -1.31542492
** ... 953 like lines cut
*Element, type=CPE3
 1, 166, 264, 221
 2, 434, 404, 375
 3, 856, 484, 260
 4, 463, 502, 419
 5, 950, 547, 445
 6, 608, 573, 536
 7, 938, 599, 922
 8, 642, 578, 607
 9, 670, 708, 617
10, 775, 742, 765
11, 782, 766, 764
12, 824, 787, 804
13, 956, 800, 823
14, 797, 783, 757
15, 818, 781, 810
16, 915, 900, 448
17, 913, 478, 899
18, 927, 392, 471
19, 929, 930, 687
20, 931, 543, 575
21, 944, 632, 637
22, 951, 422, 694
*Element, type=CPE4
 23,   7, 115, 843,  45
 24, 308, 843, 115, 342
 25,  49, 119, 118,  48
 26,  95,  10,  52, 193
 27,  55, 215, 204,  54
 28, 123,  57,  58, 124
 29,  62, 128, 127,  61
 30, 305, 229, 325, 409
 31,  17, 209, 206,  66
 32, 130,  68,  18, 198
 33,  68, 130, 129,  67
 34,  20,  97, 135,  73
 35,  76, 136, 202,  21
 36,  22, 137, 844,  77
 37,  78, 138, 137,  22
 38, 195,  33,  34, 205
 39, 107,  35,  36, 108
 40, 110,  38,  39, 111
 41,   5,  99, 113,  41
 42, 212,  43,   6, 203
** ... 894 like lines cut
*Nset, nset=Set-2, generate
   1,  973,    1
*Elset, elset=Set-2, generate
   1,  936,    1
** Section: Section-2
*Solid Section, elset=Set-2, material=Material-2
,
*End Instance
**  
*Nset, nset=Bottom, instance=Part-1-1
  93,  94,  95,  96,  97,  98,  99, 100, 101, 102, 103, 104, 105, 106, 107, 108
 109, 110, 111, 112, 113, 114, 115, 116, 117, 118, 119, 120, 121, 122, 123, 870
 871, 872, 873, 874, 875, 876, 877, 878, 879, 880, 881, 882, 883, 884, 885, 886
 887, 888, 889, 890, 891, 892, 893, 894, 895, 896, 897, 898, 899
*Elset, elset=Bottom, instance=Part-1-1
  161,  163,  297,  299,  517,  561,  585,  606,  627,  645,  663,  668,  672,  675,  676,  683
  689,  696,  703,  710,  717,  723,  730,  731,  737,  744,  751,  757,  764,  771,  780, 1411
 1412, 1424, 1429, 1434, 1475, 1476, 1499, 1501, 1503, 1505, 1506, 1527, 1529, 1543, 1544, 1583
 1584, 1585, 1586, 1587, 1588, 1589, 1590, 1591, 1592, 1593, 1595, 1599
*Nset, nset=Left, instance=Part-1-1
  63, 123, 124, 125, 126, 127, 128, 129, 130, 131, 132, 133, 134, 135, 136, 137
 138, 139, 140, 141, 142, 143, 144, 145, 146, 147, 148, 149, 150, 151, 152, 900
 901, 902, 903, 904, 905, 906, 907, 908, 909, 910, 911, 912, 913, 914, 915, 916
 917, 918, 919, 920, 921, 922, 923, 924, 925, 926, 927, 928, 929
*Elset, elset=Left, instance=Part-1-1
  113,  114,  115,  116,  209,  211,  250,  259,  269,  358,  359,  360,  772,  774,  780,  801
  807,  808,  820,  831,  840,  849,  857,  864,  870,  874,  875,  879, 1435, 1436, 1437, 1449
 1450, 1451, 1452, 1453, 1455, 1458, 1478, 1509, 1510, 1512, 1513, 1514, 1515, 1516, 1531, 1533
 1539, 1540, 1600, 1601, 1602, 1603, 1604, 1605, 1606, 1607, 1608, 1609
*Nset, nset=Right, instance=Part-1-1
  62,  64,  65,  66,  67,  68,  69,  70,  71,  72,  73,  74,  75,  76,  77,  78
  79,  80,  81,  82,  83,  84,  85,  86,  87,  88,  89,  90,  91,  92,  93, 840
 841, 842, 843, 844, 845, 846, 847, 848, 849, 850, 851, 852, 853, 854, 855, 856
 857, 858, 859, 860, 861, 862, 863, 864, 865, 866, 867, 868, 869
*Elset, elset=Right, instance=Part-1-1
   87,  496,  497,  502,  517,  518,  519,  520,  521,  522,  523,  524,  525,  526,  527,  528
  529,  541,  542,  543,  544,  545,  546,  547,  548,  549,  550,  551,  552,  553,  554,  555
  944, 1384, 1385, 1386, 1387, 1388, 1389, 1403, 1406, 1409, 1468, 1489, 1490, 1492, 1493, 1494
 1496, 1497, 1523, 1525, 1570, 1571, 1572, 1573, 1574, 1575, 1576, 1577
*Nset, nset=Top, instance=Part-1-1
  33,  34,  35,  36,  37,  38,  39,  40,  41,  42,  43,  44,  45,  46,  47,  48
  49,  50,  51,  52,  53,  54,  55,  56,  57,  58,  59,  60,  61,  62,  63, 810
 811, 812, 813, 814, 815, 816, 817, 818, 819, 820, 821, 822, 823, 824, 825, 826
 827, 828, 829, 830, 831, 832, 833, 834, 835, 836, 837, 838, 839
*Elset, elset=Top, instance=Part-1-1
  119,  121,  358,  362,  364,  365,  370,  374,  379,  385,  390,  396,  402,  408,  414,  420
  426,  432,  438,  444,  450,  456,  461,  462,  468,  474,  479,  483,  489,  495,  502, 1360
 1361, 1381, 1383, 1472, 1473, 1480, 1483, 1484, 1485, 1486, 1518, 1520, 1545, 1546, 1547, 1548
 1549, 1550, 1551, 1552, 1553, 1554, 1555, 1556, 1557, 1558, 1560, 1564
*Elset, elset=_Bottom_S2, internal, instance=Part-1-1
  119,  121,  362,  364,  365,  370,  374,  379,  385,  396,  402,  408,  414,  420,  426,  432
  438,  444,  450,  456,  461,  462,  474,  479, 1472, 1473, 1480, 1483, 1484, 1485, 1486, 1518
 1520, 1545, 1546, 1547, 1548, 1549, 1550, 1551, 1552, 1553, 1554, 1555, 1556, 1557, 1558, 1560
 1564,
*Elset, elset=_Bottom_S4, internal, instance=Part-1-1
  358,  390,  483,  489,  495, 1360, 1361, 1381, 1383
*Elset, elset=_Bottom_S1, internal, instance=Part-1-1
 468,
*Elset, elset=_Bottom_S3, internal, instance=Part-1-1
 502,
*Surface, type=ELEMENT, name=Bottom
_Bottom_S2, S2
_Bottom_S4, S4
_Bottom_S1, S1
_Bottom_S3, S3
*Elset, elset=_Left_S2, internal, instance=Part-1-1
  113,  114,  115,  209,  211,  269,  772,  774,  808,  820,  831,  840,  849,  857,  864,  870
  874,  875, 1478, 1509, 1510, 1512, 1513, 1514, 1515, 1516, 1531, 1533, 1539, 1540, 1600, 1601
 1602, 1603, 1604, 1605, 1606, 1607, 1608, 1609
*Elset, elset=_Left_S4, internal, instance=Part-1-1
  116,  250,  259,  359,  360,  780,  801,  807, 1435, 1436, 1437, 1449, 1450, 1451, 1452, 1453
 1455, 1458
*Elset, elset=_Left_S3, internal, instance=Part-1-1
 358,
*Elset, elset=_Left_S1, internal, instance=Part-1-1
 879,
*Surface, type=ELEMENT, name=Left
_Left_S2, S2
_Left_S4, S4
_Left_S3, S3
_Left_S1, S1
*Elset, elset=_Right_S2, internal, instance=Part-1-1
   87,  496,  497,  521,  522,  525,  526,  527,  528,  529,  541,  542,  543,  545,  546,  547
  548,  549,  550,  551,  552,  553,  554,  555, 1468, 1489, 1490, 1492, 1493, 1494, 1496, 1497
 1523, 1525, 1570, 1571, 1572, 1573, 1574, 1575, 1576, 1577
*Elset, elset=_Right_S4, internal, instance=Part-1-1
  502,  518,  519,  520,  544,  944, 1384, 1385, 1386, 1387, 1388, 1389, 1403, 1406, 1409
*Elset, elset=_Right_S3, internal, instance=Part-1-1
 517,
*Elset, elset=_Right_S1, internal, instance=Part-1-1
 523, 524
*Surface, type=ELEMENT, name=Right
_Right_S2, S2
_Right_S4, S4
_Right_S3, S3
_Right_S1, S1
*Elset, elset=_Top_S2, internal, instance=Part-1-1
  161,  163,  297,  299,  561,  585,  606,  627,  645,  663,  668,  675,  676,  683,  689,  696
  703,  710,  717,  723,  730,  731,  744,  751, 1475, 1476, 1499, 1501, 1503, 1505, 1506, 1527
 1529, 1543, 1544, 1583, 1584, 1585, 1586, 1587, 1588, 1589, 1590, 1591, 1592, 1593, 1595, 1599
*Elset, elset=_Top_S4, internal, instance=Part-1-1
  517,  672,  757,  764,  771, 1411, 1412, 1424, 1429, 1434
*Elset, elset=_Top_S1, internal, instance=Part-1-1
 737,
*Elset, elset=_Top_S3, internal, instance=Part-1-1
 780,
*Surface, type=ELEMENT, name=Top
_Top_S2, S2
_Top_S4, S4
_Top_S1, S1
_Top_S3, S3
*End Assembly
** 
** MATERIALS
** 
*Material, name=Material-1
*Elastic
 0.1, 0.3
*Material, name=Material-2
*Elastic
 0.05, 0.3
** ----------------------------------------------------------------
** 
** STEP: Step-1
** 
*Step, name=Step-1, nlgeom=NO
*Static
1., 1., 1e-05, 1.
** 
** OUTPUT REQUESTS
** 
*Restart, write, frequency=0
** 
** FIELD OUTPUT: F-Output-1
** 
*Output, field, variable=PRESELECT
** 
** HISTORY OUTPUT: H-Output-1
** 
*Output, history, variable=PRESELECT
*End Step
